Circuit: * C:\Users\Dante Sivo\Documents\GitHub\EE-KnowledgeBase\docs\SPICE-files\Draft1.asc

Limiting rise time of source v1 to 0.001
Limiting fall time of source v1 to 0.001
.OP point found by inspection.

Date: Thu Oct 13 21:04:08 2022
Total elapsed time: 0.029 seconds.

tnom = 27
temp = 27
method = modified trap
totiter = 2228
traniter = 2228
tranpoints = 1115
accept = 1095
rejected = 20
matrix size = 3
fillins = 0
solver = Normal
Matrix Compiler1:       3 opcodes  0.0/[0.0]/0.0
Matrix Compiler2:      15 opcodes  0.0/[0.0]/0.0

