Circuit: * C:\Users\Dante Sivo\Documents\GitHub\EE-KnowledgeBase\docs\SPICE-files\RC-Circuits-A1.asc

Limiting rise time of source v1 to 0.001
Limiting fall time of source v1 to 0.001
.OP point found by inspection.

Date: Thu Oct 13 21:07:21 2022
Total elapsed time: 0.030 seconds.

tnom = 27
temp = 27
method = modified trap
totiter = 2258
traniter = 2258
tranpoints = 1130
accept = 1110
rejected = 20
matrix size = 3
fillins = 0
solver = Normal
Matrix Compiler1: 86 bytes object code size  0.0/0.0/[0.0]
Matrix Compiler2: off  [0.0]/0.0/0.0

